480
Create LAMMPS data for SED method by using LT_Codes
Al         4.0500046618         4.0500046618         0.0000000000
Al         2.0250023309         2.0250023309         0.0000000000
Al         2.0250023309         4.0500046618         2.0250023309
Al         4.0500046618         2.0250023309         2.0250023309
Al         4.0500046618         4.0500046618         4.0500046618
Al         2.0250023309         2.0250023309         4.0500046618
Al         2.0250023309         4.0500046618         6.0750069927
Al         4.0500046618         2.0250023309         6.0750069927
Al         4.0500046618         8.1000093236         0.0000000000
Al         2.0250023309         6.0750069927         0.0000000000
Al         2.0250023309         8.1000093236         2.0250023309
Al         4.0500046618         6.0750069927         2.0250023309
Al         4.0500046618         8.1000093236         4.0500046618
Al         2.0250023309         6.0750069927         4.0500046618
Al         2.0250023309         8.1000093236         6.0750069927
Al         4.0500046618         6.0750069927         6.0750069927
Al         8.1000093236         4.0500046618         0.0000000000
Al         6.0750069927         2.0250023309         0.0000000000
Al         6.0750069927         4.0500046618         2.0250023309
Al         8.1000093236         2.0250023309         2.0250023309
Al         8.1000093236         4.0500046618         4.0500046618
Al         6.0750069927         2.0250023309         4.0500046618
Al         6.0750069927         4.0500046618         6.0750069927
Al         8.1000093236         2.0250023309         6.0750069927
Al         8.1000093236         8.1000093236         0.0000000000
Al         6.0750069927         6.0750069927         0.0000000000
Al         6.0750069927         8.1000093236         2.0250023309
Al         8.1000093236         6.0750069927         2.0250023309
Al         8.1000093236         8.1000093236         4.0500046618
Al         6.0750069927         6.0750069927         4.0500046618
Al         6.0750069927         8.1000093236         6.0750069927
Al         8.1000093236         6.0750069927         6.0750069927
Al        12.1500139854         4.0500046618         0.0000000000
Al        10.1250116545         2.0250023309         0.0000000000
Al        10.1250116545         4.0500046618         2.0250023309
Al        12.1500139854         2.0250023309         2.0250023309
Al        12.1500139854         4.0500046618         4.0500046618
Al        10.1250116545         2.0250023309         4.0500046618
Al        10.1250116545         4.0500046618         6.0750069927
Al        12.1500139854         2.0250023309         6.0750069927
Al        12.1500139854         8.1000093236         0.0000000000
Al        10.1250116545         6.0750069927         0.0000000000
Al        10.1250116545         8.1000093236         2.0250023309
Al        12.1500139854         6.0750069927         2.0250023309
Al        12.1500139854         8.1000093236         4.0500046618
Al        10.1250116545         6.0750069927         4.0500046618
Al        10.1250116545         8.1000093236         6.0750069927
Al        12.1500139854         6.0750069927         6.0750069927
Al        16.2000186472         4.0500046618         0.0000000000
Al        14.1750163163         2.0250023309         0.0000000000
Al        14.1750163163         4.0500046618         2.0250023309
Al        16.2000186472         2.0250023309         2.0250023309
Al        16.2000186472         4.0500046618         4.0500046618
Al        14.1750163163         2.0250023309         4.0500046618
Al        14.1750163163         4.0500046618         6.0750069927
Al        16.2000186472         2.0250023309         6.0750069927
Al        16.2000186472         8.1000093236         0.0000000000
Al        14.1750163163         6.0750069927         0.0000000000
Al        14.1750163163         8.1000093236         2.0250023309
Al        16.2000186472         6.0750069927         2.0250023309
Al        16.2000186472         8.1000093236         4.0500046618
Al        14.1750163163         6.0750069927         4.0500046618
Al        14.1750163163         8.1000093236         6.0750069927
Al        16.2000186472         6.0750069927         6.0750069927
Al        20.2500233090         4.0500046618         0.0000000000
Al        18.2250209781         2.0250023309         0.0000000000
Al        18.2250209781         4.0500046618         2.0250023309
Al        20.2500233090         2.0250023309         2.0250023309
Al        20.2500233090         4.0500046618         4.0500046618
Al        18.2250209781         2.0250023309         4.0500046618
Al        18.2250209781         4.0500046618         6.0750069927
Al        20.2500233090         2.0250023309         6.0750069927
Al        20.2500233090         8.1000093236         0.0000000000
Al        18.2250209781         6.0750069927         0.0000000000
Al        18.2250209781         8.1000093236         2.0250023309
Al        20.2500233090         6.0750069927         2.0250023309
Al        20.2500233090         8.1000093236         4.0500046618
Al        18.2250209781         6.0750069927         4.0500046618
Al        18.2250209781         8.1000093236         6.0750069927
Al        20.2500233090         6.0750069927         6.0750069927
Al        24.3000279708         4.0500046618         0.0000000000
Al        22.2750256399         2.0250023309         0.0000000000
Al        22.2750256399         4.0500046618         2.0250023309
Al        24.3000279708         2.0250023309         2.0250023309
Al        24.3000279708         4.0500046618         4.0500046618
Al        22.2750256399         2.0250023309         4.0500046618
Al        22.2750256399         4.0500046618         6.0750069927
Al        24.3000279708         2.0250023309         6.0750069927
Al        24.3000279708         8.1000093236         0.0000000000
Al        22.2750256399         6.0750069927         0.0000000000
Al        22.2750256399         8.1000093236         2.0250023309
Al        24.3000279708         6.0750069927         2.0250023309
Al        24.3000279708         8.1000093236         4.0500046618
Al        22.2750256399         6.0750069927         4.0500046618
Al        22.2750256399         8.1000093236         6.0750069927
Al        24.3000279708         6.0750069927         6.0750069927
Al        28.3500326326         4.0500046618         0.0000000000
Al        26.3250303017         2.0250023309         0.0000000000
Al        26.3250303017         4.0500046618         2.0250023309
Al        28.3500326326         2.0250023309         2.0250023309
Al        28.3500326326         4.0500046618         4.0500046618
Al        26.3250303017         2.0250023309         4.0500046618
Al        26.3250303017         4.0500046618         6.0750069927
Al        28.3500326326         2.0250023309         6.0750069927
Al        28.3500326326         8.1000093236         0.0000000000
Al        26.3250303017         6.0750069927         0.0000000000
Al        26.3250303017         8.1000093236         2.0250023309
Al        28.3500326326         6.0750069927         2.0250023309
Al        28.3500326326         8.1000093236         4.0500046618
Al        26.3250303017         6.0750069927         4.0500046618
Al        26.3250303017         8.1000093236         6.0750069927
Al        28.3500326326         6.0750069927         6.0750069927
Al        32.4000372944         4.0500046618         0.0000000000
Al        30.3750349635         2.0250023309         0.0000000000
Al        30.3750349635         4.0500046618         2.0250023309
Al        32.4000372944         2.0250023309         2.0250023309
Al        32.4000372944         4.0500046618         4.0500046618
Al        30.3750349635         2.0250023309         4.0500046618
Al        30.3750349635         4.0500046618         6.0750069927
Al        32.4000372944         2.0250023309         6.0750069927
Al        32.4000372944         8.1000093236         0.0000000000
Al        30.3750349635         6.0750069927         0.0000000000
Al        30.3750349635         8.1000093236         2.0250023309
Al        32.4000372944         6.0750069927         2.0250023309
Al        32.4000372944         8.1000093236         4.0500046618
Al        30.3750349635         6.0750069927         4.0500046618
Al        30.3750349635         8.1000093236         6.0750069927
Al        32.4000372944         6.0750069927         6.0750069927
Al        36.4500419562         4.0500046618         0.0000000000
Al        34.4250396253         2.0250023309         0.0000000000
Al        34.4250396253         4.0500046618         2.0250023309
Al        36.4500419562         2.0250023309         2.0250023309
Al        36.4500419562         4.0500046618         4.0500046618
Al        34.4250396253         2.0250023309         4.0500046618
Al        34.4250396253         4.0500046618         6.0750069927
Al        36.4500419562         2.0250023309         6.0750069927
Al        36.4500419562         8.1000093236         0.0000000000
Al        34.4250396253         6.0750069927         0.0000000000
Al        34.4250396253         8.1000093236         2.0250023309
Al        36.4500419562         6.0750069927         2.0250023309
Al        36.4500419562         8.1000093236         4.0500046618
Al        34.4250396253         6.0750069927         4.0500046618
Al        34.4250396253         8.1000093236         6.0750069927
Al        36.4500419562         6.0750069927         6.0750069927
Al        40.5000466180         4.0500046618         0.0000000000
Al        38.4750442871         2.0250023309         0.0000000000
Al        38.4750442871         4.0500046618         2.0250023309
Al        40.5000466180         2.0250023309         2.0250023309
Al        40.5000466180         4.0500046618         4.0500046618
Al        38.4750442871         2.0250023309         4.0500046618
Al        38.4750442871         4.0500046618         6.0750069927
Al        40.5000466180         2.0250023309         6.0750069927
Al        40.5000466180         8.1000093236         0.0000000000
Al        38.4750442871         6.0750069927         0.0000000000
Al        38.4750442871         8.1000093236         2.0250023309
Al        40.5000466180         6.0750069927         2.0250023309
Al        40.5000466180         8.1000093236         4.0500046618
Al        38.4750442871         6.0750069927         4.0500046618
Al        38.4750442871         8.1000093236         6.0750069927
Al        40.5000466180         6.0750069927         6.0750069927
Al        44.5500512798         4.0500046618         0.0000000000
Al        42.5250489489         2.0250023309         0.0000000000
Al        42.5250489489         4.0500046618         2.0250023309
Al        44.5500512798         2.0250023309         2.0250023309
Al        44.5500512798         4.0500046618         4.0500046618
Al        42.5250489489         2.0250023309         4.0500046618
Al        42.5250489489         4.0500046618         6.0750069927
Al        44.5500512798         2.0250023309         6.0750069927
Al        44.5500512798         8.1000093236         0.0000000000
Al        42.5250489489         6.0750069927         0.0000000000
Al        42.5250489489         8.1000093236         2.0250023309
Al        44.5500512798         6.0750069927         2.0250023309
Al        44.5500512798         8.1000093236         4.0500046618
Al        42.5250489489         6.0750069927         4.0500046618
Al        42.5250489489         8.1000093236         6.0750069927
Al        44.5500512798         6.0750069927         6.0750069927
Al        48.6000559416         4.0500046618         0.0000000000
Al        46.5750536107         2.0250023309         0.0000000000
Al        46.5750536107         4.0500046618         2.0250023309
Al        48.6000559416         2.0250023309         2.0250023309
Al        48.6000559416         4.0500046618         4.0500046618
Al        46.5750536107         2.0250023309         4.0500046618
Al        46.5750536107         4.0500046618         6.0750069927
Al        48.6000559416         2.0250023309         6.0750069927
Al        48.6000559416         8.1000093236         0.0000000000
Al        46.5750536107         6.0750069927         0.0000000000
Al        46.5750536107         8.1000093236         2.0250023309
Al        48.6000559416         6.0750069927         2.0250023309
Al        48.6000559416         8.1000093236         4.0500046618
Al        46.5750536107         6.0750069927         4.0500046618
Al        46.5750536107         8.1000093236         6.0750069927
Al        48.6000559416         6.0750069927         6.0750069927
Al        52.6500606034         4.0500046618         0.0000000000
Al        50.6250582725         2.0250023309         0.0000000000
Al        50.6250582725         4.0500046618         2.0250023309
Al        52.6500606034         2.0250023309         2.0250023309
Al        52.6500606034         4.0500046618         4.0500046618
Al        50.6250582725         2.0250023309         4.0500046618
Al        50.6250582725         4.0500046618         6.0750069927
Al        52.6500606034         2.0250023309         6.0750069927
Al        52.6500606034         8.1000093236         0.0000000000
Al        50.6250582725         6.0750069927         0.0000000000
Al        50.6250582725         8.1000093236         2.0250023309
Al        52.6500606034         6.0750069927         2.0250023309
Al        52.6500606034         8.1000093236         4.0500046618
Al        50.6250582725         6.0750069927         4.0500046618
Al        50.6250582725         8.1000093236         6.0750069927
Al        52.6500606034         6.0750069927         6.0750069927
Al        56.7000652652         4.0500046618         0.0000000000
Al        54.6750629343         2.0250023309         0.0000000000
Al        54.6750629343         4.0500046618         2.0250023309
Al        56.7000652652         2.0250023309         2.0250023309
Al        56.7000652652         4.0500046618         4.0500046618
Al        54.6750629343         2.0250023309         4.0500046618
Al        54.6750629343         4.0500046618         6.0750069927
Al        56.7000652652         2.0250023309         6.0750069927
Al        56.7000652652         8.1000093236         0.0000000000
Al        54.6750629343         6.0750069927         0.0000000000
Al        54.6750629343         8.1000093236         2.0250023309
Al        56.7000652652         6.0750069927         2.0250023309
Al        56.7000652652         8.1000093236         4.0500046618
Al        54.6750629343         6.0750069927         4.0500046618
Al        54.6750629343         8.1000093236         6.0750069927
Al        56.7000652652         6.0750069927         6.0750069927
Al        60.7500699270         4.0500046618         0.0000000000
Al        58.7250675961         2.0250023309         0.0000000000
Al        58.7250675961         4.0500046618         2.0250023309
Al        60.7500699270         2.0250023309         2.0250023309
Al        60.7500699270         4.0500046618         4.0500046618
Al        58.7250675961         2.0250023309         4.0500046618
Al        58.7250675961         4.0500046618         6.0750069927
Al        60.7500699270         2.0250023309         6.0750069927
Al        60.7500699270         8.1000093236         0.0000000000
Al        58.7250675961         6.0750069927         0.0000000000
Al        58.7250675961         8.1000093236         2.0250023309
Al        60.7500699270         6.0750069927         2.0250023309
Al        60.7500699270         8.1000093236         4.0500046618
Al        58.7250675961         6.0750069927         4.0500046618
Al        58.7250675961         8.1000093236         6.0750069927
Al        60.7500699270         6.0750069927         6.0750069927
Al        64.8000745888         4.0500046618         0.0000000000
Al        62.7750722579         2.0250023309         0.0000000000
Al        62.7750722579         4.0500046618         2.0250023309
Al        64.8000745888         2.0250023309         2.0250023309
Al        64.8000745888         4.0500046618         4.0500046618
Al        62.7750722579         2.0250023309         4.0500046618
Al        62.7750722579         4.0500046618         6.0750069927
Al        64.8000745888         2.0250023309         6.0750069927
Al        64.8000745888         8.1000093236         0.0000000000
Al        62.7750722579         6.0750069927         0.0000000000
Al        62.7750722579         8.1000093236         2.0250023309
Al        64.8000745888         6.0750069927         2.0250023309
Al        64.8000745888         8.1000093236         4.0500046618
Al        62.7750722579         6.0750069927         4.0500046618
Al        62.7750722579         8.1000093236         6.0750069927
Al        64.8000745888         6.0750069927         6.0750069927
Al        68.8500792506         4.0500046618         0.0000000000
Al        66.8250769197         2.0250023309         0.0000000000
Al        66.8250769197         4.0500046618         2.0250023309
Al        68.8500792506         2.0250023309         2.0250023309
Al        68.8500792506         4.0500046618         4.0500046618
Al        66.8250769197         2.0250023309         4.0500046618
Al        66.8250769197         4.0500046618         6.0750069927
Al        68.8500792506         2.0250023309         6.0750069927
Al        68.8500792506         8.1000093236         0.0000000000
Al        66.8250769197         6.0750069927         0.0000000000
Al        66.8250769197         8.1000093236         2.0250023309
Al        68.8500792506         6.0750069927         2.0250023309
Al        68.8500792506         8.1000093236         4.0500046618
Al        66.8250769197         6.0750069927         4.0500046618
Al        66.8250769197         8.1000093236         6.0750069927
Al        68.8500792506         6.0750069927         6.0750069927
Al        72.9000839124         4.0500046618         0.0000000000
Al        70.8750815815         2.0250023309         0.0000000000
Al        70.8750815815         4.0500046618         2.0250023309
Al        72.9000839124         2.0250023309         2.0250023309
Al        72.9000839124         4.0500046618         4.0500046618
Al        70.8750815815         2.0250023309         4.0500046618
Al        70.8750815815         4.0500046618         6.0750069927
Al        72.9000839124         2.0250023309         6.0750069927
Al        72.9000839124         8.1000093236         0.0000000000
Al        70.8750815815         6.0750069927         0.0000000000
Al        70.8750815815         8.1000093236         2.0250023309
Al        72.9000839124         6.0750069927         2.0250023309
Al        72.9000839124         8.1000093236         4.0500046618
Al        70.8750815815         6.0750069927         4.0500046618
Al        70.8750815815         8.1000093236         6.0750069927
Al        72.9000839124         6.0750069927         6.0750069927
Al        76.9500885742         4.0500046618         0.0000000000
Al        74.9250862433         2.0250023309         0.0000000000
Al        74.9250862433         4.0500046618         2.0250023309
Al        76.9500885742         2.0250023309         2.0250023309
Al        76.9500885742         4.0500046618         4.0500046618
Al        74.9250862433         2.0250023309         4.0500046618
Al        74.9250862433         4.0500046618         6.0750069927
Al        76.9500885742         2.0250023309         6.0750069927
Al        76.9500885742         8.1000093236         0.0000000000
Al        74.9250862433         6.0750069927         0.0000000000
Al        74.9250862433         8.1000093236         2.0250023309
Al        76.9500885742         6.0750069927         2.0250023309
Al        76.9500885742         8.1000093236         4.0500046618
Al        74.9250862433         6.0750069927         4.0500046618
Al        74.9250862433         8.1000093236         6.0750069927
Al        76.9500885742         6.0750069927         6.0750069927
Al        81.0000932360         4.0500046618         0.0000000000
Al        78.9750909051         2.0250023309         0.0000000000
Al        78.9750909051         4.0500046618         2.0250023309
Al        81.0000932360         2.0250023309         2.0250023309
Al        81.0000932360         4.0500046618         4.0500046618
Al        78.9750909051         2.0250023309         4.0500046618
Al        78.9750909051         4.0500046618         6.0750069927
Al        81.0000932360         2.0250023309         6.0750069927
Al        81.0000932360         8.1000093236         0.0000000000
Al        78.9750909051         6.0750069927         0.0000000000
Al        78.9750909051         8.1000093236         2.0250023309
Al        81.0000932360         6.0750069927         2.0250023309
Al        81.0000932360         8.1000093236         4.0500046618
Al        78.9750909051         6.0750069927         4.0500046618
Al        78.9750909051         8.1000093236         6.0750069927
Al        81.0000932360         6.0750069927         6.0750069927
Al        85.0500978978         4.0500046618         0.0000000000
Al        83.0250955669         2.0250023309         0.0000000000
Al        83.0250955669         4.0500046618         2.0250023309
Al        85.0500978978         2.0250023309         2.0250023309
Al        85.0500978978         4.0500046618         4.0500046618
Al        83.0250955669         2.0250023309         4.0500046618
Al        83.0250955669         4.0500046618         6.0750069927
Al        85.0500978978         2.0250023309         6.0750069927
Al        85.0500978978         8.1000093236         0.0000000000
Al        83.0250955669         6.0750069927         0.0000000000
Al        83.0250955669         8.1000093236         2.0250023309
Al        85.0500978978         6.0750069927         2.0250023309
Al        85.0500978978         8.1000093236         4.0500046618
Al        83.0250955669         6.0750069927         4.0500046618
Al        83.0250955669         8.1000093236         6.0750069927
Al        85.0500978978         6.0750069927         6.0750069927
Al        89.1001025596         4.0500046618         0.0000000000
Al        87.0751002287         2.0250023309         0.0000000000
Al        87.0751002287         4.0500046618         2.0250023309
Al        89.1001025596         2.0250023309         2.0250023309
Al        89.1001025596         4.0500046618         4.0500046618
Al        87.0751002287         2.0250023309         4.0500046618
Al        87.0751002287         4.0500046618         6.0750069927
Al        89.1001025596         2.0250023309         6.0750069927
Al        89.1001025596         8.1000093236         0.0000000000
Al        87.0751002287         6.0750069927         0.0000000000
Al        87.0751002287         8.1000093236         2.0250023309
Al        89.1001025596         6.0750069927         2.0250023309
Al        89.1001025596         8.1000093236         4.0500046618
Al        87.0751002287         6.0750069927         4.0500046618
Al        87.0751002287         8.1000093236         6.0750069927
Al        89.1001025596         6.0750069927         6.0750069927
Al        93.1501072214         4.0500046618         0.0000000000
Al        91.1251048905         2.0250023309         0.0000000000
Al        91.1251048905         4.0500046618         2.0250023309
Al        93.1501072214         2.0250023309         2.0250023309
Al        93.1501072214         4.0500046618         4.0500046618
Al        91.1251048905         2.0250023309         4.0500046618
Al        91.1251048905         4.0500046618         6.0750069927
Al        93.1501072214         2.0250023309         6.0750069927
Al        93.1501072214         8.1000093236         0.0000000000
Al        91.1251048905         6.0750069927         0.0000000000
Al        91.1251048905         8.1000093236         2.0250023309
Al        93.1501072214         6.0750069927         2.0250023309
Al        93.1501072214         8.1000093236         4.0500046618
Al        91.1251048905         6.0750069927         4.0500046618
Al        91.1251048905         8.1000093236         6.0750069927
Al        93.1501072214         6.0750069927         6.0750069927
Al        97.2001118832         4.0500046618         0.0000000000
Al        95.1751095523         2.0250023309         0.0000000000
Al        95.1751095523         4.0500046618         2.0250023309
Al        97.2001118832         2.0250023309         2.0250023309
Al        97.2001118832         4.0500046618         4.0500046618
Al        95.1751095523         2.0250023309         4.0500046618
Al        95.1751095523         4.0500046618         6.0750069927
Al        97.2001118832         2.0250023309         6.0750069927
Al        97.2001118832         8.1000093236         0.0000000000
Al        95.1751095523         6.0750069927         0.0000000000
Al        95.1751095523         8.1000093236         2.0250023309
Al        97.2001118832         6.0750069927         2.0250023309
Al        97.2001118832         8.1000093236         4.0500046618
Al        95.1751095523         6.0750069927         4.0500046618
Al        95.1751095523         8.1000093236         6.0750069927
Al        97.2001118832         6.0750069927         6.0750069927
Al       101.2501165450         4.0500046618         0.0000000000
Al        99.2251142141         2.0250023309         0.0000000000
Al        99.2251142141         4.0500046618         2.0250023309
Al       101.2501165450         2.0250023309         2.0250023309
Al       101.2501165450         4.0500046618         4.0500046618
Al        99.2251142141         2.0250023309         4.0500046618
Al        99.2251142141         4.0500046618         6.0750069927
Al       101.2501165450         2.0250023309         6.0750069927
Al       101.2501165450         8.1000093236         0.0000000000
Al        99.2251142141         6.0750069927         0.0000000000
Al        99.2251142141         8.1000093236         2.0250023309
Al       101.2501165450         6.0750069927         2.0250023309
Al       101.2501165450         8.1000093236         4.0500046618
Al        99.2251142141         6.0750069927         4.0500046618
Al        99.2251142141         8.1000093236         6.0750069927
Al       101.2501165450         6.0750069927         6.0750069927
Al       105.3001212068         4.0500046618         0.0000000000
Al       103.2751188759         2.0250023309         0.0000000000
Al       103.2751188759         4.0500046618         2.0250023309
Al       105.3001212068         2.0250023309         2.0250023309
Al       105.3001212068         4.0500046618         4.0500046618
Al       103.2751188759         2.0250023309         4.0500046618
Al       103.2751188759         4.0500046618         6.0750069927
Al       105.3001212068         2.0250023309         6.0750069927
Al       105.3001212068         8.1000093236         0.0000000000
Al       103.2751188759         6.0750069927         0.0000000000
Al       103.2751188759         8.1000093236         2.0250023309
Al       105.3001212068         6.0750069927         2.0250023309
Al       105.3001212068         8.1000093236         4.0500046618
Al       103.2751188759         6.0750069927         4.0500046618
Al       103.2751188759         8.1000093236         6.0750069927
Al       105.3001212068         6.0750069927         6.0750069927
Al       109.3501258686         4.0500046618         0.0000000000
Al       107.3251235377         2.0250023309         0.0000000000
Al       107.3251235377         4.0500046618         2.0250023309
Al       109.3501258686         2.0250023309         2.0250023309
Al       109.3501258686         4.0500046618         4.0500046618
Al       107.3251235377         2.0250023309         4.0500046618
Al       107.3251235377         4.0500046618         6.0750069927
Al       109.3501258686         2.0250023309         6.0750069927
Al       109.3501258686         8.1000093236         0.0000000000
Al       107.3251235377         6.0750069927         0.0000000000
Al       107.3251235377         8.1000093236         2.0250023309
Al       109.3501258686         6.0750069927         2.0250023309
Al       109.3501258686         8.1000093236         4.0500046618
Al       107.3251235377         6.0750069927         4.0500046618
Al       107.3251235377         8.1000093236         6.0750069927
Al       109.3501258686         6.0750069927         6.0750069927
Al       113.4001305304         4.0500046618         0.0000000000
Al       111.3751281995         2.0250023309         0.0000000000
Al       111.3751281995         4.0500046618         2.0250023309
Al       113.4001305304         2.0250023309         2.0250023309
Al       113.4001305304         4.0500046618         4.0500046618
Al       111.3751281995         2.0250023309         4.0500046618
Al       111.3751281995         4.0500046618         6.0750069927
Al       113.4001305304         2.0250023309         6.0750069927
Al       113.4001305304         8.1000093236         0.0000000000
Al       111.3751281995         6.0750069927         0.0000000000
Al       111.3751281995         8.1000093236         2.0250023309
Al       113.4001305304         6.0750069927         2.0250023309
Al       113.4001305304         8.1000093236         4.0500046618
Al       111.3751281995         6.0750069927         4.0500046618
Al       111.3751281995         8.1000093236         6.0750069927
Al       113.4001305304         6.0750069927         6.0750069927
Al       117.4501351922         4.0500046618         0.0000000000
Al       115.4251328613         2.0250023309         0.0000000000
Al       115.4251328613         4.0500046618         2.0250023309
Al       117.4501351922         2.0250023309         2.0250023309
Al       117.4501351922         4.0500046618         4.0500046618
Al       115.4251328613         2.0250023309         4.0500046618
Al       115.4251328613         4.0500046618         6.0750069927
Al       117.4501351922         2.0250023309         6.0750069927
Al       117.4501351922         8.1000093236         0.0000000000
Al       115.4251328613         6.0750069927         0.0000000000
Al       115.4251328613         8.1000093236         2.0250023309
Al       117.4501351922         6.0750069927         2.0250023309
Al       117.4501351922         8.1000093236         4.0500046618
Al       115.4251328613         6.0750069927         4.0500046618
Al       115.4251328613         8.1000093236         6.0750069927
Al       117.4501351922         6.0750069927         6.0750069927
Al       121.5001398540         4.0500046618         0.0000000000
Al       119.4751375231         2.0250023309         0.0000000000
Al       119.4751375231         4.0500046618         2.0250023309
Al       121.5001398540         2.0250023309         2.0250023309
Al       121.5001398540         4.0500046618         4.0500046618
Al       119.4751375231         2.0250023309         4.0500046618
Al       119.4751375231         4.0500046618         6.0750069927
Al       121.5001398540         2.0250023309         6.0750069927
Al       121.5001398540         8.1000093236         0.0000000000
Al       119.4751375231         6.0750069927         0.0000000000
Al       119.4751375231         8.1000093236         2.0250023309
Al       121.5001398540         6.0750069927         2.0250023309
Al       121.5001398540         8.1000093236         4.0500046618
Al       119.4751375231         6.0750069927         4.0500046618
Al       119.4751375231         8.1000093236         6.0750069927
Al       121.5001398540         6.0750069927         6.0750069927
